/*--------------------------------*- C++ -*----------------------------------*\
| =========                 |                                                 |
| \\      /  F ield         | OpenFOAM: The Open Source CFD Toolbox           |
|  \\    /   O peration     | Version:  dev                                   |
|   \\  /    A nd           | Web:      www.OpenFOAM.org                      |
|    \\/     M anipulation  |                                                 |
\*---------------------------------------------------------------------------*/
FoamFile
{
    version     2.0;
    format      ascii;
    class       volScalarField;
    object      p;
}
// * * * * * * * * * * * * * * * * * * * * * * * * * * * * * * * * * * * * * //

dimensions      [1 -1 -2 0 0 0 0];

internalField   uniform 100000;

boundaryField
{
    front
    { 
        type            wedge;
    }
	
	back
    { 
        type            wedge;
    }

    wall
    {
        type            calculated;
        value           $internalField;
    }

    inlet_water
    {
        type            calculated;
        value           $internalField;
    }
	
	inlet_helium
    {
        type            calculated;
        value           $internalField;
    }


    outlet_pressure
    {
        type            calculated;
        value           $internalField;
    }

    defaultFaces
    {
        type            empty;
    }
}

// ************************************************************************* //
